0:0
     RDKit          3D

 19 19  0  0  1  0  0  0  0  0999 V2000
    0.0104    0.0181   -0.0014 N   0  0  0  0  0  0  0  0  0  0  0  0
    1.4064   -0.0096   -0.0006 C   0  0  0  0  0  0  0  0  0  0  0  0
    2.1156    1.2080   -0.0013 C   0  0  0  0  0  0  0  0  0  0  0  0
    3.5234    1.2104    0.0018 C   0  0  0  0  0  0  0  0  0  0  0  0
    4.2380   -0.0063    0.0101 C   0  0  0  0  0  0  0  0  0  0  0  0
    3.5261   -1.2254    0.0020 C   0  0  0  0  0  0  0  0  0  0  0  0
    2.1162   -1.2338   -0.0011 C   0  0  0  0  0  0  0  0  0  0  0  0
    1.4449   -2.4584   -0.0055 N   0  0  0  0  0  0  0  0  0  0  0  0
    5.7597   -0.0044    0.0069 C   0  0  0  0  0  0  0  0  0  0  0  0
    6.2385   -1.0838    0.6267 F   0  0  0  0  0  0  0  0  0  0  0  0
    6.1957   -0.0040   -1.2521 F   0  0  0  0  0  0  0  0  0  0  0  0
    6.2354    1.0762    0.6264 F   0  0  0  0  0  0  0  0  0  0  0  0
   -0.5013    0.8886   -0.0002 H   0  0  0  0  0  0  0  0  0  0  0  0
   -0.5326   -0.8330   -0.0001 H   0  0  0  0  0  0  0  0  0  0  0  0
    1.5824    2.1477   -0.0051 H   0  0  0  0  0  0  0  0  0  0  0  0
    4.0516    2.1524   -0.0035 H   0  0  0  0  0  0  0  0  0  0  0  0
    4.0654   -2.1614   -0.0032 H   0  0  0  0  0  0  0  0  0  0  0  0
    1.9445   -3.3361    0.0003 H   0  0  0  0  0  0  0  0  0  0  0  0
    0.4363   -2.5047    0.0001 H   0  0  0  0  0  0  0  0  0  0  0  0
  1  2  1  0
  1 13  1  0
  1 14  1  0
  2  7  2  0
  2  3  1  0
  3  4  2  0
  3 15  1  0
  4  5  1  0
  4 16  1  0
  5  6  2  0
  5  9  1  0
  6  7  1  0
  6 17  1  0
  7  8  1  0
  8 18  1  0
  8 19  1  0
  9 10  1  0
  9 11  1  0
  9 12  1  0
M  END
>  <s_m_source_file>  (1) 
tmp8vjqzszb.smi

>  <i_m_source_file_index>  (1) 
1

>  <i_lp_mmshare_version>  (1) 
53161

>  <i_f3d_flags>  (1) 
0

>  <s_epik_input>  (1) 
W05IMl1jMVtjSF1bY0hdYyhDKEYpKEYpRilbY0hdYzFbTkgyXQ==

>  <s_epik_cmdline>  (1) 
J2VwaWtfcHl0aG9uJywgJy1waHQnLCAnMi4wJywgJy1waCcsICc3LjAnLCAnLXRuJywgJzgnLCAnLW1hJywgJzIwMCcsICctaW1hZScsICc8aW5maWxlLm1hZT4nLCAnLW9tYWUnLCAnPG91dGZpbGUubWFlPic=

>  <r_lp_tautomer_probability>  (1) 
1

>  <r_epik_Ionization_Penalty>  (1) 
0.000241086

>  <r_epik_Ionization_Penalty_Charging>  (1) 
0

>  <r_epik_Ionization_Penalty_Neutral>  (1) 
0.000241086

>  <r_epik_State_Penalty>  (1) 
-0

>  <r_epik_Charging_Adjusted_Penalty>  (1) 
0

>  <i_epik_Tot_Q>  (1) 
0

>  <i_epik_Tot_abs_Q>  (1) 
0

>  <s_lp_Force_Field>  (1) 
OPLS_2005

>  <r_lp_Energy>  (1) 
7.37193

>  <b_lp_Chiralities_Consistent>  (1) 
1

>  <s_lp_Variant>  (1) 
0:0-1

>  <compound_name>  (1) 
3,4-DIAMINOBENZOTRIFLUORIDE

>  <index_string>  (1) 
0:0

$$$$
